1.E
     RDKit          3D

 28 29  0  0  1  0  0  0  0  0999 V2000
   -2.4160   58.3090   -5.4640 C   0  0  0  0  0  0  0  0  0  0  0  0
   -3.3710   59.0640   -5.3230 O   0  0  0  0  0  0  0  0  0  0  0  0
   -1.5990   58.1890   -4.5610 O   0  0  0  0  0  0  0  0  0  0  0  0
   -2.3440   57.4690   -6.6730 C   0  0  0  0  0  0  0  0  0  0  0  0
   -1.4120   56.5180   -6.7960 C   0  0  0  0  0  0  0  0  0  0  0  0
   -1.3790   55.6270   -8.0080 C   0  0  1  0  0  0  0  0  0  0  0  0
   -2.2120   56.1910   -9.1560 C   0  0  1  0  0  0  0  0  0  0  0  0
   -2.4990   55.1260  -10.1100 N   0  0  0  0  0  0  0  0  0  0  0  0
   -2.1370   55.1410  -11.4020 C   0  0  0  0  0  0  0  0  0  0  0  0
   -1.5630   56.1000  -11.8890 O   0  0  0  0  0  0  0  0  0  0  0  0
   -2.4430   53.8710  -12.2170 C   0  0  0  0  0  0  0  0  0  0  0  0
   -3.5280   56.7290   -8.5990 C   0  0  1  0  0  0  0  0  0  0  0  0
   -3.2930   57.6710   -7.5870 O   0  0  0  0  0  0  0  0  0  0  0  0
   -4.2550   57.5050   -9.6740 C   0  0  0  0  0  0  0  0  0  0  0  0
   -3.7430   58.2630   -9.9970 O   0  0  0  0  0  0  0  0  0  0  0  0
   -5.3800   57.0300  -10.1910 N   0  0  0  0  0  0  0  0  0  0  0  0
   -5.9710   57.8100  -11.3010 C   0  0  0  0  0  0  0  0  0  0  0  0
   -5.3950   57.4170  -12.6650 C   0  0  0  0  0  0  0  0  0  0  0  0
   -6.0130   58.3010  -13.7300 C   0  0  0  0  0  0  0  0  0  0  0  0
   -5.5860   59.6390  -13.8840 C   0  0  0  0  0  0  0  0  0  0  0  0
   -7.0380   57.8160  -14.5550 C   0  0  0  0  0  0  0  0  0  0  0  0
   -6.2020   60.4850  -14.8230 C   0  0  0  0  0  0  0  0  0  0  0  0
   -7.6510   58.6560  -15.4900 C   0  0  0  0  0  0  0  0  0  0  0  0
   -7.2490   59.9920  -15.6230 C   0  0  0  0  0  0  0  0  0  0  0  0
   -6.0810   55.8520   -9.6850 C   0  0  0  0  0  0  0  0  0  0  0  0
   -6.9620   56.1710   -8.4650 C   0  0  0  0  0  0  0  0  0  0  0  0
   -7.8370   57.4310   -8.6020 C   0  0  0  0  0  0  0  0  0  0  0  0
   -0.0140   55.4590   -8.4300 N   0  0  0  0  0  0  0  0  0  0  0  0
  1  2  2  0
  1  3  1  0
  1  4  1  0
  4  5  2  0
  4 13  1  0
  5  6  1  0
  6  7  1  0
  6 28  1  6
  7  8  1  6
  7 12  1  0
  8  9  1  0
  9 10  2  0
  9 11  1  0
 12 13  1  0
 12 14  1  6
 14 15  2  0
 14 16  1  0
 16 17  1  0
 16 25  1  0
 17 18  1  0
 18 19  1  0
 19 20  2  0
 19 21  1  0
 20 22  1  0
 21 23  2  0
 22 24  2  0
 23 24  1  0
 25 26  1  0
 26 27  1  0
M  END
$$$$
