1.I
     RDKit          3D

 28 29  0  0  1  0  0  0  0  0999 V2000
   29.4230   39.9720  -31.1580 C   0  0  0  0  0  0  0  0  0  0  0  0
   29.2790   40.0900  -32.3730 O   0  0  0  0  0  0  0  0  0  0  0  0
   28.9240   40.7950  -30.3980 O   0  0  0  0  0  0  0  0  0  0  0  0
   30.1270   38.7760  -30.6830 C   0  0  0  0  0  0  0  0  0  0  0  0
   30.0090   38.3380  -29.4150 C   0  0  0  0  0  0  0  0  0  0  0  0
   30.7310   37.1280  -28.9310 C   0  0  1  0  0  0  0  0  0  0  0  0
   31.7730   36.6420  -29.9220 C   0  0  1  0  0  0  0  0  0  0  0  0
   32.0630   35.2220  -29.6560 N   0  0  0  0  0  0  0  0  0  0  0  0
   33.2740   34.7220  -29.4400 C   0  0  0  0  0  0  0  0  0  0  0  0
   34.3020   35.3900  -29.4620 O   0  0  0  0  0  0  0  0  0  0  0  0
   33.2560   33.2330  -29.1760 C   0  0  0  0  0  0  0  0  0  0  0  0
   31.2280   36.8100  -31.3500 C   0  0  1  0  0  0  0  0  0  0  0  0
   30.8570   38.1400  -31.5780 O   0  0  0  0  0  0  0  0  0  0  0  0
   32.3810   36.5480  -32.3440 C   0  0  0  0  0  0  0  0  0  0  0  0
   33.3380   37.3080  -32.4220 O   0  0  0  0  0  0  0  0  0  0  0  0
   32.3200   35.4440  -33.0910 N   0  0  0  0  0  0  0  0  0  0  0  0
   33.4920   35.2040  -33.9640 C   0  0  0  0  0  0  0  0  0  0  0  0
   34.7110   34.6720  -33.1920 C   0  0  0  0  0  0  0  0  0  0  0  0
   35.8970   34.5640  -34.1160 C   0  0  0  0  0  0  0  0  0  0  0  0
   36.6820   35.7000  -34.3790 C   0  0  0  0  0  0  0  0  0  0  0  0
   36.1990   33.3350  -34.7420 C   0  0  0  0  0  0  0  0  0  0  0  0
   37.7480   35.6060  -35.2820 C   0  0  0  0  0  0  0  0  0  0  0  0
   37.2600   33.2460  -35.6470 C   0  0  0  0  0  0  0  0  0  0  0  0
   38.0330   34.3780  -35.9210 C   0  0  0  0  0  0  0  0  0  0  0  0
   31.1710   34.5120  -33.1160 C   0  0  0  0  0  0  0  0  0  0  0  0
   30.0470   35.0720  -33.9740 C   0  0  0  0  0  0  0  0  0  0  0  0
   30.5560   35.4510  -35.3800 C   0  0  0  0  0  0  0  0  0  0  0  0
   31.3550   37.3760  -27.6390 N   0  0  0  0  0  0  0  0  0  0  0  0
  1  2  2  0
  1  3  1  0
  1  4  1  0
  4  5  2  0
  4 13  1  0
  5  6  1  0
  6  7  1  0
  6 28  1  1
  7  8  1  1
  7 12  1  0
  8  9  1  0
  9 10  2  0
  9 11  1  0
 12 13  1  0
 12 14  1  6
 14 15  2  0
 14 16  1  0
 16 17  1  0
 16 25  1  0
 17 18  1  0
 18 19  1  0
 19 20  2  0
 19 21  1  0
 20 22  1  0
 21 23  2  0
 22 24  2  0
 23 24  1  0
 25 26  1  0
 26 27  1  0
M  END
$$$$
